Version 4
SHEET 1 1236 680
WIRE 1184 -368 912 -368
WIRE 1040 -160 1008 -160
WIRE 1008 -80 1008 -160
WIRE 912 -64 912 -368
WIRE 976 -64 912 -64
WIRE 1168 -48 1040 -48
WIRE 1184 -48 1184 -368
WIRE 1184 -48 1168 -48
WIRE 400 -32 256 -32
WIRE 576 -32 480 -32
WIRE 624 -32 576 -32
WIRE 768 -32 704 -32
WIRE 976 -32 768 -32
WIRE 0 32 -32 32
WIRE 256 32 256 -32
WIRE 768 48 768 -32
WIRE 656 64 640 64
WIRE 0 80 0 32
WIRE 1008 80 1008 -16
WIRE 1040 80 1008 80
WIRE 640 112 640 64
WIRE 656 112 640 112
WIRE 656 144 656 112
WIRE 576 160 576 -32
WIRE 624 160 576 160
WIRE 0 176 0 160
WIRE 0 176 -176 176
WIRE 768 176 768 112
WIRE 768 176 688 176
WIRE 1168 176 1168 -48
WIRE 256 192 256 112
WIRE 624 192 576 192
WIRE -176 208 -176 176
WIRE 0 208 0 176
WIRE 656 272 656 208
WIRE 672 272 656 272
WIRE 576 288 576 192
WIRE 0 336 0 288
WIRE 0 336 -32 336
WIRE 1168 352 1168 256
FLAG -176 208 0
FLAG 256 192 0
FLAG 1168 352 0
FLAG 576 288 0
FLAG -32 32 +vcc
IOPIN -32 32 In
FLAG -32 336 -vcc
IOPIN -32 336 In
FLAG 656 64 +vcc
IOPIN 656 64 Out
FLAG 1040 -160 +vcc
IOPIN 1040 -160 Out
FLAG 1040 80 -vcc
IOPIN 1040 80 Out
FLAG 672 272 -vcc
IOPIN 672 272 Out
SYMBOL voltage 0 64 R0
WINDOW 123 0 0 Left 2
WINDOW 39 24 124 Left 2
SYMATTR SpiceLine Rser=5
SYMATTR InstName V1
SYMATTR Value 5
SYMBOL voltage 0 192 R0
WINDOW 123 0 0 Left 2
WINDOW 39 0 0 Left 2
SYMATTR InstName V2
SYMATTR Value 5
SYMBOL res 384 -48 M90
WINDOW 0 0 56 VBottom 2
WINDOW 3 32 56 VTop 2
SYMATTR InstName R1
SYMATTR Value 3.9k
SYMBOL res 608 -48 M90
WINDOW 0 0 56 VBottom 2
WINDOW 3 38 53 VTop 2
SYMATTR InstName R2
SYMATTR Value 3.9k
SYMBOL res 1184 272 R180
WINDOW 0 36 76 Left 2
WINDOW 3 36 40 Left 2
SYMATTR InstName R3
SYMATTR Value 3.9k
SYMBOL diode 784 112 R180
WINDOW 0 24 64 Left 2
WINDOW 3 24 0 Left 2
SYMATTR InstName D1
SYMBOL voltage 256 16 R0
WINDOW 123 0 0 Left 2
WINDOW 39 0 0 Left 2
SYMATTR InstName V3
SYMATTR Value SINE(0 2 1k 0 0 0 10)
SYMBOL Opamps\\UniversalOpamp2 656 176 R0
SYMATTR InstName U1
SYMBOL Opamps\\UniversalOpamp2 1008 -48 R0
SYMATTR InstName U2
TEXT -200 416 Left 2 !.tran 0 10m 0 0.1
